
OS:Version,
  {680e79d9-1e04-4bc4-be79-1968c86acaa7}, !- Handle
  3.10.0;                                 !- Version Identifier

OS:Site,
  {db5e67d4-a764-4893-84aa-24205d4a8978}, !- Handle
  SPb_Pulkovo,                            !- Name
  59.8,                                   !- Latitude {deg}
  30.26,                                  !- Longitude {deg}
  3,                                      !- Time Zone {hr}
  16,                                     !- Elevation {m}
  ;                                       !- Terrain

OS:WeatherFile,
  {975b8a75-b5d1-43b6-bc71-896b89b542f8}, !- Handle
  St.Petersburg-Pulkovo.AP,               !- City
  SPE,                                    !- State Province Region
  RUS,                                    !- Country
  SRC-TMYx,                               !- Data Source
  260630,                                 !- WMO Number
  59.8,                                   !- Latitude {deg}
  30.263,                                 !- Longitude {deg}
  3,                                      !- Time Zone {hr}
  24.1,                                   !- Elevation {m}
  /Users/m/Documents/Openstudio/Saint-Petersburg.epw, !- Url
  C1F27A3E,                               !- Checksum
  ,                                       !- Start Date Actual Year
  Sunday;                                 !- Start Day of Week

OS:SimulationControl,
  {079ff49a-8cfb-40df-a2a4-71ec510d347a}, !- Handle
  Yes,                                    !- Do Zone Sizing Calculation
  Yes,                                    !- Do System Sizing Calculation
  Yes,                                    !- Do Plant Sizing Calculation
  Yes,                                    !- Run Simulation for Sizing Periods
  Yes;                                    !- Run Simulation for Weather File Run Periods

OS:RunPeriod,
  {cc75012c-a402-4799-abb5-989a91b1a505}, !- Handle
  Run Period 1,                           !- Name
  1,                                      !- Begin Month
  1,                                      !- Begin Day of Month
  12,                                     !- End Month
  31,                                     !- End Day of Month
  ,                                       !- Use Weather File Holidays and Special Days
  ,                                       !- Use Weather File Daylight Saving Period
  ,                                       !- Apply Weekend Holiday Rule
  ,                                       !- Use Weather File Rain Indicators
  ,                                       !- Use Weather File Snow Indicators
  ;                                       !- Number of Times Runperiod to be Repeated

OS:ZoneAirContaminantBalance,
  {6e2c5ff7-2731-4645-b775-9b94ed3e2099}, !- Handle
  Yes,                                    !- Carbon Dioxide Concentration
  {1eda42d0-6ed8-4ba1-b709-cd24334205e9}; !- Outdoor Carbon Dioxide Schedule Name

OS:Schedule:Constant,
  {1eda42d0-6ed8-4ba1-b709-cd24334205e9}, !- Handle
  Наружный_CO2_400ppm,            !- Name
  {5d28331e-f649-4fcc-82c8-44560b510e75}, !- Schedule Type Limits Name
  400;                                    !- Value

OS:ScheduleTypeLimits,
  {5d28331e-f649-4fcc-82c8-44560b510e75}, !- Handle
  Dimensionless,                          !- Name
  0,                                      !- Lower Limit Value
  ,                                       !- Upper Limit Value
  Continuous;                             !- Numeric Type

OS:Material,
  {d7684386-f0c4-4040-853f-e64b79c9d2a9}, !- Handle
  Штукатурка_20мм,            !- Name
  Smooth,                                 !- Roughness
  0.02,                                   !- Thickness {m}
  0.7,                                    !- Conductivity {W/m-K}
  1600,                                   !- Density {kg/m3}
  840,                                    !- Specific Heat {J/kg-K}
  0.9,                                    !- Thermal Absorptance
  0.7;                                    !- Solar Absorptance

OS:Material,
  {704b3ab6-7cf1-4403-8ab3-5a6da3d830ae}, !- Handle
  Бетон_500мм,                     !- Name
  Smooth,                                 !- Roughness
  0.5,                                    !- Thickness {m}
  1.74,                                   !- Conductivity {W/m-K}
  2200,                                   !- Density {kg/m3}
  840,                                    !- Specific Heat {J/kg-K}
  0.9,                                    !- Thermal Absorptance
  0.7;                                    !- Solar Absorptance

OS:Material,
  {81b6118f-c32f-43e3-8e54-d42c81dbf674}, !- Handle
  МинВата_100мм,                 !- Name
  Smooth,                                 !- Roughness
  0.1,                                    !- Thickness {m}
  0.042,                                  !- Conductivity {W/m-K}
  80,                                     !- Density {kg/m3}
  840,                                    !- Specific Heat {J/kg-K}
  0.9,                                    !- Thermal Absorptance
  0.7;                                    !- Solar Absorptance

OS:Material,
  {b5c87c26-a8a0-4dab-a6e9-0785ec81db39}, !- Handle
  МинВата_150мм,                 !- Name
  Smooth,                                 !- Roughness
  0.15,                                   !- Thickness {m}
  0.042,                                  !- Conductivity {W/m-K}
  80,                                     !- Density {kg/m3}
  840,                                    !- Specific Heat {J/kg-K}
  0.9,                                    !- Thermal Absorptance
  0.7;                                    !- Solar Absorptance

OS:Material,
  {efecb9cc-848f-4387-8854-d836d1ea5fef}, !- Handle
  ЖБ_плита_220мм,                !- Name
  Smooth,                                 !- Roughness
  0.22,                                   !- Thickness {m}
  1.74,                                   !- Conductivity {W/m-K}
  2500,                                   !- Density {kg/m3}
  840,                                    !- Specific Heat {J/kg-K}
  0.9,                                    !- Thermal Absorptance
  0.7;                                    !- Solar Absorptance

OS:Material,
  {cc1e47e2-7677-4b6e-bf64-131010f1aeab}, !- Handle
  Стяжка_100мм,                   !- Name
  Smooth,                                 !- Roughness
  0.1,                                    !- Thickness {m}
  0.93,                                   !- Conductivity {W/m-K}
  1800,                                   !- Density {kg/m3}
  840,                                    !- Specific Heat {J/kg-K}
  0.9,                                    !- Thermal Absorptance
  0.7;                                    !- Solar Absorptance

OS:Construction,
  {918b8219-974a-4423-bb5d-aa56c61d480f}, !- Handle
  Стена_наружная,            !- Name
  ,                                       !- Surface Rendering Name
  {d7684386-f0c4-4040-853f-e64b79c9d2a9}, !- Layer 1
  {704b3ab6-7cf1-4403-8ab3-5a6da3d830ae}, !- Layer 2
  {81b6118f-c32f-43e3-8e54-d42c81dbf674}, !- Layer 3
  {d7684386-f0c4-4040-853f-e64b79c9d2a9}; !- Layer 4

OS:Construction,
  {31d44218-e630-418d-8de3-ec033cff4e31}, !- Handle
  Стена_внутренняя,        !- Name
  ,                                       !- Surface Rendering Name
  {d7684386-f0c4-4040-853f-e64b79c9d2a9}, !- Layer 1
  {704b3ab6-7cf1-4403-8ab3-5a6da3d830ae}, !- Layer 2
  {d7684386-f0c4-4040-853f-e64b79c9d2a9}; !- Layer 3

OS:Construction,
  {04c63691-8e7c-4c61-8e2d-f3ff92313aa9}, !- Handle
  Покрытие_зала,              !- Name
  ,                                       !- Surface Rendering Name
  {b5c87c26-a8a0-4dab-a6e9-0785ec81db39}, !- Layer 1
  {efecb9cc-848f-4387-8854-d836d1ea5fef}; !- Layer 2

OS:Construction,
  {3197446a-d5f8-49af-98e8-d3696409f4a0}, !- Handle
  Пол_зала,                        !- Name
  ,                                       !- Surface Rendering Name
  {cc1e47e2-7677-4b6e-bf64-131010f1aeab}, !- Layer 1
  {efecb9cc-848f-4387-8854-d836d1ea5fef}; !- Layer 2

OS:ThermalZone,
  {12b5a44a-8e43-4cf4-992f-340160a98400}, !- Handle
  Кинозал_135мест_Base,        !- Name
  ,                                       !- Multiplier
  ,                                       !- Ceiling Height {m}
  ,                                       !- Volume {m3}
  ,                                       !- Floor Area {m2}
  ,                                       !- Zone Inside Convection Algorithm
  ,                                       !- Zone Outside Convection Algorithm
  ,                                       !- Zone Conditioning Equipment List Name
  {77a86c85-4d9f-4499-a32f-86c88b1284b4}, !- Zone Air Inlet Port List
  {1cb45d6c-370b-431c-b6d5-49b035438144}, !- Zone Air Exhaust Port List
  {8a1c7903-3702-428b-86b3-c6201d278f6a}, !- Zone Air Node Name
  {961986fe-c155-43f8-bde3-b2846f7aaf68}, !- Zone Return Air Port List
  ,                                       !- Primary Daylighting Control Name
  ,                                       !- Fraction of Zone Controlled by Primary Daylighting Control
  ,                                       !- Secondary Daylighting Control Name
  ,                                       !- Fraction of Zone Controlled by Secondary Daylighting Control
  ,                                       !- Illuminance Map Name
  ,                                       !- Group Rendering Name
  {2877b269-c888-4d58-8b54-295ba767eb23}, !- Thermostat Name
  No;                                     !- Use Ideal Air Loads

OS:Node,
  {716586c3-88d5-43e1-b3f5-19da7696ad13}, !- Handle
  Node 1,                                 !- Name
  {8a1c7903-3702-428b-86b3-c6201d278f6a}, !- Inlet Port
  ;                                       !- Outlet Port

OS:Connection,
  {8a1c7903-3702-428b-86b3-c6201d278f6a}, !- Handle
  {12b5a44a-8e43-4cf4-992f-340160a98400}, !- Source Object
  11,                                     !- Outlet Port
  {716586c3-88d5-43e1-b3f5-19da7696ad13}, !- Target Object
  2;                                      !- Inlet Port

OS:PortList,
  {77a86c85-4d9f-4499-a32f-86c88b1284b4}, !- Handle
  {12b5a44a-8e43-4cf4-992f-340160a98400}, !- HVAC Component
  {e19828dc-68df-44c9-a257-90b96cd21fde}; !- Port 1

OS:PortList,
  {1cb45d6c-370b-431c-b6d5-49b035438144}, !- Handle
  {12b5a44a-8e43-4cf4-992f-340160a98400}; !- HVAC Component

OS:PortList,
  {961986fe-c155-43f8-bde3-b2846f7aaf68}, !- Handle
  {12b5a44a-8e43-4cf4-992f-340160a98400}, !- HVAC Component
  {10b9922e-c55c-4941-ae74-c54b274242f1}; !- Port 1

OS:Sizing:Zone,
  {c1be28ee-8b90-42e4-a032-041281eb4c39}, !- Handle
  {12b5a44a-8e43-4cf4-992f-340160a98400}, !- Zone or ZoneList Name
  SupplyAirTemperature,                   !- Zone Cooling Design Supply Air Temperature Input Method
  14,                                     !- Zone Cooling Design Supply Air Temperature {C}
  11.11,                                  !- Zone Cooling Design Supply Air Temperature Difference {deltaC}
  SupplyAirTemperature,                   !- Zone Heating Design Supply Air Temperature Input Method
  40,                                     !- Zone Heating Design Supply Air Temperature {C}
  11.11,                                  !- Zone Heating Design Supply Air Temperature Difference {deltaC}
  0.0085,                                 !- Zone Cooling Design Supply Air Humidity Ratio {kg-H2O/kg-air}
  0.008,                                  !- Zone Heating Design Supply Air Humidity Ratio {kg-H2O/kg-air}
  ,                                       !- Zone Heating Sizing Factor
  ,                                       !- Zone Cooling Sizing Factor
  DesignDay,                              !- Cooling Design Air Flow Method
  ,                                       !- Cooling Design Air Flow Rate {m3/s}
  ,                                       !- Cooling Minimum Air Flow per Zone Floor Area {m3/s-m2}
  ,                                       !- Cooling Minimum Air Flow {m3/s}
  ,                                       !- Cooling Minimum Air Flow Fraction
  DesignDay,                              !- Heating Design Air Flow Method
  ,                                       !- Heating Design Air Flow Rate {m3/s}
  ,                                       !- Heating Maximum Air Flow per Zone Floor Area {m3/s-m2}
  ,                                       !- Heating Maximum Air Flow {m3/s}
  ,                                       !- Heating Maximum Air Flow Fraction
  No,                                     !- Account for Dedicated Outdoor Air System
  NeutralSupplyAir,                       !- Dedicated Outdoor Air System Control Strategy
  autosize,                               !- Dedicated Outdoor Air Low Setpoint Temperature for Design {C}
  autosize,                               !- Dedicated Outdoor Air High Setpoint Temperature for Design {C}
  Sensible Load Only No Latent Load,      !- Zone Load Sizing Method
  HumidityRatioDifference,                !- Zone Latent Cooling Design Supply Air Humidity Ratio Input Method
  ,                                       !- Zone Dehumidification Design Supply Air Humidity Ratio {kgWater/kgDryAir}
  0.005,                                  !- Zone Cooling Design Supply Air Humidity Ratio Difference {kgWater/kgDryAir}
  HumidityRatioDifference,                !- Zone Latent Heating Design Supply Air Humidity Ratio Input Method
  ,                                       !- Zone Humidification Design Supply Air Humidity Ratio {kgWater/kgDryAir}
  0.005,                                  !- Zone Humidification Design Supply Air Humidity Ratio Difference {kgWater/kgDryAir}
  ,                                       !- Zone Humidistat Dehumidification Set Point Schedule Name
  ,                                       !- Zone Humidistat Humidification Set Point Schedule Name
  ,                                       !- Design Zone Air Distribution Effectiveness in Cooling Mode
  ,                                       !- Design Zone Air Distribution Effectiveness in Heating Mode
  ,                                       !- Design Zone Secondary Recirculation Fraction {dimensionless}
  ,                                       !- Design Minimum Zone Ventilation Efficiency {dimensionless}
  Coincident;                             !- Sizing Option

OS:ZoneHVAC:EquipmentList,
  {d7dbe3d1-ebf9-4691-8c00-f51d5d9db881}, !- Handle
  Zone HVAC Equipment List 1,             !- Name
  {12b5a44a-8e43-4cf4-992f-340160a98400}, !- Thermal Zone
  ,                                       !- Load Distribution Scheme
  {e0f4f0a2-216c-43ed-bec3-bd3e12f127f8}, !- Zone Equipment 1
  1,                                      !- Zone Equipment Cooling Sequence 1
  1,                                      !- Zone Equipment Heating or No-Load Sequence 1
  ,                                       !- Zone Equipment Sequential Cooling Fraction Schedule Name 1
  ;                                       !- Zone Equipment Sequential Heating Fraction Schedule Name 1

OS:Space,
  {9cbc3ef5-5ccf-4183-8832-3a4addf8abbc}, !- Handle
  Зал_Base,                            !- Name
  ,                                       !- Space Type Name
  ,                                       !- Default Construction Set Name
  ,                                       !- Default Schedule Set Name
  ,                                       !- Direction of Relative North {deg}
  ,                                       !- X Origin {m}
  ,                                       !- Y Origin {m}
  ,                                       !- Z Origin {m}
  ,                                       !- Building Story Name
  {12b5a44a-8e43-4cf4-992f-340160a98400}, !- Thermal Zone Name
  ,                                       !- Part of Total Floor Area
  {f86bc59f-8ab7-498b-b976-d257d9a15804}; !- Design Specification Outdoor Air Object Name

OS:Surface,
  {312493f7-5276-46a5-a92b-1b2fbbccf71f}, !- Handle
  Пол,                                 !- Name
  Floor,                                  !- Surface Type
  {3197446a-d5f8-49af-98e8-d3696409f4a0}, !- Construction Name
  {9cbc3ef5-5ccf-4183-8832-3a4addf8abbc}, !- Space Name
  Ground,                                 !- Outside Boundary Condition
  ,                                       !- Outside Boundary Condition Object
  NoSun,                                  !- Sun Exposure
  NoWind,                                 !- Wind Exposure
  ,                                       !- View Factor to Ground
  ,                                       !- Number of Vertices
  0, 0, 0,                                !- X,Y,Z Vertex 1 {m}
  0, 8.48, 0,                             !- X,Y,Z Vertex 2 {m}
  15.68, 8.48, 0,                         !- X,Y,Z Vertex 3 {m}
  15.68, 0, 0;                            !- X,Y,Z Vertex 4 {m}

OS:Surface,
  {099f88e1-7306-430c-a55d-be7e9e5f346e}, !- Handle
  Потолок,                         !- Name
  RoofCeiling,                            !- Surface Type
  {04c63691-8e7c-4c61-8e2d-f3ff92313aa9}, !- Construction Name
  {9cbc3ef5-5ccf-4183-8832-3a4addf8abbc}, !- Space Name
  Outdoors,                               !- Outside Boundary Condition
  ,                                       !- Outside Boundary Condition Object
  NoSun,                                  !- Sun Exposure
  NoWind,                                 !- Wind Exposure
  ,                                       !- View Factor to Ground
  ,                                       !- Number of Vertices
  0, 0, 4.85,                             !- X,Y,Z Vertex 1 {m}
  15.68, 0, 4.85,                         !- X,Y,Z Vertex 2 {m}
  15.68, 8.48, 4.85,                      !- X,Y,Z Vertex 3 {m}
  0, 8.48, 4.85;                          !- X,Y,Z Vertex 4 {m}

OS:Surface,
  {399411fb-01f8-43e3-b18a-b11ee064410c}, !- Handle
  Стена_Ю,                          !- Name
  Wall,                                   !- Surface Type
  {918b8219-974a-4423-bb5d-aa56c61d480f}, !- Construction Name
  {9cbc3ef5-5ccf-4183-8832-3a4addf8abbc}, !- Space Name
  Outdoors,                               !- Outside Boundary Condition
  ,                                       !- Outside Boundary Condition Object
  SunExposed,                             !- Sun Exposure
  WindExposed,                            !- Wind Exposure
  ,                                       !- View Factor to Ground
  ,                                       !- Number of Vertices
  0, 0, 0,                                !- X,Y,Z Vertex 1 {m}
  0, 0, 4.85,                             !- X,Y,Z Vertex 2 {m}
  15.68, 0, 4.85,                         !- X,Y,Z Vertex 3 {m}
  15.68, 0, 0;                            !- X,Y,Z Vertex 4 {m}

OS:Surface,
  {7333b100-fe85-4ec5-a9c5-4095fbe98bfb}, !- Handle
  Стена_С,                          !- Name
  Wall,                                   !- Surface Type
  {918b8219-974a-4423-bb5d-aa56c61d480f}, !- Construction Name
  {9cbc3ef5-5ccf-4183-8832-3a4addf8abbc}, !- Space Name
  Outdoors,                               !- Outside Boundary Condition
  ,                                       !- Outside Boundary Condition Object
  SunExposed,                             !- Sun Exposure
  WindExposed,                            !- Wind Exposure
  ,                                       !- View Factor to Ground
  ,                                       !- Number of Vertices
  15.68, 8.48, 0,                         !- X,Y,Z Vertex 1 {m}
  15.68, 8.48, 4.85,                      !- X,Y,Z Vertex 2 {m}
  0, 8.48, 4.85,                          !- X,Y,Z Vertex 3 {m}
  0, 8.48, 0;                             !- X,Y,Z Vertex 4 {m}

OS:Surface,
  {1ce39b1d-fb96-43f4-80a1-4570dee978fd}, !- Handle
  Стена_З,                          !- Name
  Wall,                                   !- Surface Type
  {31d44218-e630-418d-8de3-ec033cff4e31}, !- Construction Name
  {9cbc3ef5-5ccf-4183-8832-3a4addf8abbc}, !- Space Name
  Outdoors,                               !- Outside Boundary Condition
  ,                                       !- Outside Boundary Condition Object
  SunExposed,                             !- Sun Exposure
  WindExposed,                            !- Wind Exposure
  ,                                       !- View Factor to Ground
  ,                                       !- Number of Vertices
  0, 8.48, 0,                             !- X,Y,Z Vertex 1 {m}
  0, 8.48, 4.85,                          !- X,Y,Z Vertex 2 {m}
  0, 0, 4.85,                             !- X,Y,Z Vertex 3 {m}
  0, 0, 0;                                !- X,Y,Z Vertex 4 {m}

OS:Surface,
  {fefb7170-4783-48f6-b2b9-0725f3cdd01f}, !- Handle
  Стена_В,                          !- Name
  Wall,                                   !- Surface Type
  {31d44218-e630-418d-8de3-ec033cff4e31}, !- Construction Name
  {9cbc3ef5-5ccf-4183-8832-3a4addf8abbc}, !- Space Name
  Outdoors,                               !- Outside Boundary Condition
  ,                                       !- Outside Boundary Condition Object
  SunExposed,                             !- Sun Exposure
  WindExposed,                            !- Wind Exposure
  ,                                       !- View Factor to Ground
  ,                                       !- Number of Vertices
  15.68, 0, 0,                            !- X,Y,Z Vertex 1 {m}
  15.68, 0, 4.85,                         !- X,Y,Z Vertex 2 {m}
  15.68, 8.48, 4.85,                      !- X,Y,Z Vertex 3 {m}
  15.68, 8.48, 0;                         !- X,Y,Z Vertex 4 {m}

OS:ScheduleTypeLimits,
  {b4a2cb45-0d9d-4e88-81e0-8377e4636d6e}, !- Handle
  Заполняемость_Base_Limits, !- Name
  0,                                      !- Lower Limit Value
  1,                                      !- Upper Limit Value
  Continuous,                             !- Numeric Type
  Dimensionless;                          !- Unit Type

OS:Schedule:Ruleset,
  {682c2cba-a713-4d3f-a713-a7afd995fe18}, !- Handle
  Заполняемость_Base,        !- Name
  {b4a2cb45-0d9d-4e88-81e0-8377e4636d6e}, !- Schedule Type Limits Name
  {085181d4-81fc-4bff-a694-6b0b06289ffb}; !- Default Day Schedule Name

OS:Schedule:Day,
  {085181d4-81fc-4bff-a694-6b0b06289ffb}, !- Handle
  Schedule Day 1,                         !- Name
  {b4a2cb45-0d9d-4e88-81e0-8377e4636d6e}, !- Schedule Type Limits Name
  ,                                       !- Interpolate to Timestep
  1,                                      !- Hour 1
  0,                                      !- Minute 1
  0,                                      !- Value Until Time 1
  2,                                      !- Hour 2
  0,                                      !- Minute 2
  0,                                      !- Value Until Time 2
  3,                                      !- Hour 3
  0,                                      !- Minute 3
  0,                                      !- Value Until Time 3
  4,                                      !- Hour 4
  0,                                      !- Minute 4
  0,                                      !- Value Until Time 4
  5,                                      !- Hour 5
  0,                                      !- Minute 5
  0,                                      !- Value Until Time 5
  6,                                      !- Hour 6
  0,                                      !- Minute 6
  0,                                      !- Value Until Time 6
  7,                                      !- Hour 7
  0,                                      !- Minute 7
  0,                                      !- Value Until Time 7
  8,                                      !- Hour 8
  0,                                      !- Minute 8
  0,                                      !- Value Until Time 8
  9,                                      !- Hour 9
  0,                                      !- Minute 9
  0.1,                                    !- Value Until Time 9
  10,                                     !- Hour 10
  0,                                      !- Minute 10
  0.1,                                    !- Value Until Time 10
  11,                                     !- Hour 11
  0,                                      !- Minute 11
  0.2,                                    !- Value Until Time 11
  12,                                     !- Hour 12
  0,                                      !- Minute 12
  0.85,                                   !- Value Until Time 12
  13,                                     !- Hour 13
  0,                                      !- Minute 13
  0.85,                                   !- Value Until Time 13
  14,                                     !- Hour 14
  0,                                      !- Minute 14
  0.85,                                   !- Value Until Time 14
  15,                                     !- Hour 15
  0,                                      !- Minute 15
  0.85,                                   !- Value Until Time 15
  16,                                     !- Hour 16
  0,                                      !- Minute 16
  0.15,                                   !- Value Until Time 16
  17,                                     !- Hour 17
  0,                                      !- Minute 17
  0.8,                                    !- Value Until Time 17
  18,                                     !- Hour 18
  0,                                      !- Minute 18
  0.8,                                    !- Value Until Time 18
  19,                                     !- Hour 19
  0,                                      !- Minute 19
  0.15,                                   !- Value Until Time 19
  20,                                     !- Hour 20
  0,                                      !- Minute 20
  0.92,                                   !- Value Until Time 20
  21,                                     !- Hour 21
  0,                                      !- Minute 21
  0.92,                                   !- Value Until Time 21
  22,                                     !- Hour 22
  0,                                      !- Minute 22
  0.2,                                    !- Value Until Time 22
  23,                                     !- Hour 23
  0,                                      !- Minute 23
  0.82,                                   !- Value Until Time 23
  24,                                     !- Hour 24
  0,                                      !- Minute 24
  0.82;                                   !- Value Until Time 24

OS:Schedule:Rule,
  {4b189707-4abf-4371-a337-5546f68c111f}, !- Handle
  Schedule Rule 1,                        !- Name
  {682c2cba-a713-4d3f-a713-a7afd995fe18}, !- Schedule Ruleset Name
  0,                                      !- Rule Order
  {1a83ed3d-786a-4607-8e1a-871758e010f1}, !- Day Schedule Name
  Yes,                                    !- Apply Sunday
  ,                                       !- Apply Monday
  ,                                       !- Apply Tuesday
  ,                                       !- Apply Wednesday
  ,                                       !- Apply Thursday
  ,                                       !- Apply Friday
  Yes;                                    !- Apply Saturday

OS:Schedule:Day,
  {1a83ed3d-786a-4607-8e1a-871758e010f1}, !- Handle
  Schedule Day 2,                         !- Name
  {b4a2cb45-0d9d-4e88-81e0-8377e4636d6e}, !- Schedule Type Limits Name
  ,                                       !- Interpolate to Timestep
  1,                                      !- Hour 1
  0,                                      !- Minute 1
  0,                                      !- Value Until Time 1
  2,                                      !- Hour 2
  0,                                      !- Minute 2
  0,                                      !- Value Until Time 2
  3,                                      !- Hour 3
  0,                                      !- Minute 3
  0,                                      !- Value Until Time 3
  4,                                      !- Hour 4
  0,                                      !- Minute 4
  0,                                      !- Value Until Time 4
  5,                                      !- Hour 5
  0,                                      !- Minute 5
  0,                                      !- Value Until Time 5
  6,                                      !- Hour 6
  0,                                      !- Minute 6
  0,                                      !- Value Until Time 6
  7,                                      !- Hour 7
  0,                                      !- Minute 7
  0,                                      !- Value Until Time 7
  8,                                      !- Hour 8
  0,                                      !- Minute 8
  0,                                      !- Value Until Time 8
  9,                                      !- Hour 9
  0,                                      !- Minute 9
  0.1,                                    !- Value Until Time 9
  10,                                     !- Hour 10
  0,                                      !- Minute 10
  0.1,                                    !- Value Until Time 10
  11,                                     !- Hour 11
  0,                                      !- Minute 11
  0.88,                                   !- Value Until Time 11
  12,                                     !- Hour 12
  0,                                      !- Minute 12
  0.88,                                   !- Value Until Time 12
  13,                                     !- Hour 13
  0,                                      !- Minute 13
  0.92,                                   !- Value Until Time 13
  14,                                     !- Hour 14
  0,                                      !- Minute 14
  0.92,                                   !- Value Until Time 14
  15,                                     !- Hour 15
  0,                                      !- Minute 15