
OS:Version,
  {43a9746e-dba0-4230-98cb-7cc20cbc25f0}, !- Handle
  3.10.0;                                 !- Version Identifier

OS:Site,
  {d4277588-a28b-4365-ae1a-a876feb2c96c}, !- Handle
  SPb_Pulkovo,                            !- Name
  59.8,                                   !- Latitude {deg}
  30.26,                                  !- Longitude {deg}
  3,                                      !- Time Zone {hr}
  16,                                     !- Elevation {m}
  ;                                       !- Terrain

OS:WeatherFile,
  {8a54bceb-f973-4b3a-913f-d32bbc46c6fe}, !- Handle
  St.Petersburg-Pulkovo.AP,               !- City
  SPE,                                    !- State Province Region
  RUS,                                    !- Country
  SRC-TMYx,                               !- Data Source
  260630,                                 !- WMO Number
  59.8,                                   !- Latitude {deg}
  30.263,                                 !- Longitude {deg}
  3,                                      !- Time Zone {hr}
  24.1,                                   !- Elevation {m}
  /Users/m/Documents/Openstudio/Saint-Petersburg.epw, !- Url
  C1F27A3E,                               !- Checksum
  ,                                       !- Start Date Actual Year
  Sunday;                                 !- Start Day of Week

OS:SimulationControl,
  {d75bf701-f9a6-481e-ba78-aaa5a06e75fa}, !- Handle
  Yes,                                    !- Do Zone Sizing Calculation
  Yes,                                    !- Do System Sizing Calculation
  Yes,                                    !- Do Plant Sizing Calculation
  Yes,                                    !- Run Simulation for Sizing Periods
  Yes;                                    !- Run Simulation for Weather File Run Periods

OS:RunPeriod,
  {23cb1219-5b1e-4ed4-8691-a22841eaf0ba}, !- Handle
  Run Period 1,                           !- Name
  1,                                      !- Begin Month
  1,                                      !- Begin Day of Month
  12,                                     !- End Month
  31,                                     !- End Day of Month
  ,                                       !- Use Weather File Holidays and Special Days
  ,                                       !- Use Weather File Daylight Saving Period
  ,                                       !- Apply Weekend Holiday Rule
  ,                                       !- Use Weather File Rain Indicators
  ,                                       !- Use Weather File Snow Indicators
  ;                                       !- Number of Times Runperiod to be Repeated

OS:ZoneAirContaminantBalance,
  {09842b89-5d86-413d-aa8c-4c51c1bc70cc}, !- Handle
  Yes,                                    !- Carbon Dioxide Concentration
  {d64f0af4-71ae-455b-933c-a710dc88eef8}; !- Outdoor Carbon Dioxide Schedule Name

OS:Schedule:Constant,
  {d64f0af4-71ae-455b-933c-a710dc88eef8}, !- Handle
  Наружный_CO2_400ppm,            !- Name
  {8415bdc1-b2c5-45db-903c-e325e91d00f0}, !- Schedule Type Limits Name
  400;                                    !- Value

OS:ScheduleTypeLimits,
  {8415bdc1-b2c5-45db-903c-e325e91d00f0}, !- Handle
  Dimensionless,                          !- Name
  0,                                      !- Lower Limit Value
  ,                                       !- Upper Limit Value
  Continuous;                             !- Numeric Type

OS:Material,
  {fa285168-e66e-4b8f-970f-4b245f167ffc}, !- Handle
  Штукатурка_20мм,            !- Name
  Smooth,                                 !- Roughness
  0.02,                                   !- Thickness {m}
  0.7,                                    !- Conductivity {W/m-K}
  1600,                                   !- Density {kg/m3}
  840,                                    !- Specific Heat {J/kg-K}
  0.9,                                    !- Thermal Absorptance
  0.7;                                    !- Solar Absorptance

OS:Material,
  {65250397-0379-4320-a57f-847d77a75396}, !- Handle
  Бетон_500мм,                     !- Name
  Smooth,                                 !- Roughness
  0.5,                                    !- Thickness {m}
  1.74,                                   !- Conductivity {W/m-K}
  2200,                                   !- Density {kg/m3}
  840,                                    !- Specific Heat {J/kg-K}
  0.9,                                    !- Thermal Absorptance
  0.7;                                    !- Solar Absorptance

OS:Material,
  {016ed65b-aaf4-4535-b152-8552437a27cc}, !- Handle
  МинВата_100мм,                 !- Name
  Smooth,                                 !- Roughness
  0.1,                                    !- Thickness {m}
  0.042,                                  !- Conductivity {W/m-K}
  80,                                     !- Density {kg/m3}
  840,                                    !- Specific Heat {J/kg-K}
  0.9,                                    !- Thermal Absorptance
  0.7;                                    !- Solar Absorptance

OS:Material,
  {e4f447af-2971-4cf6-83eb-f0bb3d0a3d71}, !- Handle
  МинВата_150мм,                 !- Name
  Smooth,                                 !- Roughness
  0.15,                                   !- Thickness {m}
  0.042,                                  !- Conductivity {W/m-K}
  80,                                     !- Density {kg/m3}
  840,                                    !- Specific Heat {J/kg-K}
  0.9,                                    !- Thermal Absorptance
  0.7;                                    !- Solar Absorptance

OS:Material,
  {4d80a171-04f8-4266-9f24-cd6a980979b6}, !- Handle
  ЖБ_плита_220мм,                !- Name
  Smooth,                                 !- Roughness
  0.22,                                   !- Thickness {m}
  1.74,                                   !- Conductivity {W/m-K}
  2500,                                   !- Density {kg/m3}
  840,                                    !- Specific Heat {J/kg-K}
  0.9,                                    !- Thermal Absorptance
  0.7;                                    !- Solar Absorptance

OS:Material,
  {24bbe7a3-ef42-468d-ae92-4562f0fce9f2}, !- Handle
  Стяжка_100мм,                   !- Name
  Smooth,                                 !- Roughness
  0.1,                                    !- Thickness {m}
  0.93,                                   !- Conductivity {W/m-K}
  1800,                                   !- Density {kg/m3}
  840,                                    !- Specific Heat {J/kg-K}
  0.9,                                    !- Thermal Absorptance
  0.7;                                    !- Solar Absorptance

OS:Construction,
  {f979e0e7-984f-4d15-99a8-fe0954e87025}, !- Handle
  Стена_наружная,            !- Name
  ,                                       !- Surface Rendering Name
  {fa285168-e66e-4b8f-970f-4b245f167ffc}, !- Layer 1
  {65250397-0379-4320-a57f-847d77a75396}, !- Layer 2
  {016ed65b-aaf4-4535-b152-8552437a27cc}, !- Layer 3
  {fa285168-e66e-4b8f-970f-4b245f167ffc}; !- Layer 4

OS:Construction,
  {bee0d8b9-db34-4629-93d5-ae9d62d03a4a}, !- Handle
  Стена_внутренняя,        !- Name
  ,                                       !- Surface Rendering Name
  {fa285168-e66e-4b8f-970f-4b245f167ffc}, !- Layer 1
  {65250397-0379-4320-a57f-847d77a75396}, !- Layer 2
  {fa285168-e66e-4b8f-970f-4b245f167ffc}; !- Layer 3

OS:Construction,
  {b2e660d1-5936-442d-a404-bbd4644b2041}, !- Handle
  Покрытие_зала,              !- Name
  ,                                       !- Surface Rendering Name
  {e4f447af-2971-4cf6-83eb-f0bb3d0a3d71}, !- Layer 1
  {4d80a171-04f8-4266-9f24-cd6a980979b6}; !- Layer 2

OS:Construction,
  {5f0c7a54-bd8b-4f8d-b0b5-4939c75ef4d5}, !- Handle
  Пол_зала,                        !- Name
  ,                                       !- Surface Rendering Name
  {24bbe7a3-ef42-468d-ae92-4562f0fce9f2}, !- Layer 1
  {4d80a171-04f8-4266-9f24-cd6a980979b6}; !- Layer 2

OS:ThermalZone,
  {5391a1ae-6e7e-4c99-a74a-28a6711a0519}, !- Handle
  Кинозал_135мест_DCV_Recup,         !- Name
  ,                                       !- Multiplier
  ,                                       !- Ceiling Height {m}
  ,                                       !- Volume {m3}
  ,                                       !- Floor Area {m2}
  ,                                       !- Zone Inside Convection Algorithm
  ,                                       !- Zone Outside Convection Algorithm
  ,                                       !- Zone Conditioning Equipment List Name
  {621456d3-e0b2-46c6-980e-7e881342a1b2}, !- Zone Air Inlet Port List
  {ef2e436a-f887-4691-a494-bc4225e886af}, !- Zone Air Exhaust Port List
  {0ab39a48-0685-4162-b3fb-114ac5b0a257}, !- Zone Air Node Name
  {754abe76-a30e-4eba-a6bd-a5a87d909117}, !- Zone Return Air Port List
  ,                                       !- Primary Daylighting Control Name
  ,                                       !- Fraction of Zone Controlled by Primary Daylighting Control
  ,                                       !- Secondary Daylighting Control Name
  ,                                       !- Fraction of Zone Controlled by Secondary Daylighting Control
  ,                                       !- Illuminance Map Name
  ,                                       !- Group Rendering Name
  {4a045677-84ba-4419-8672-0eb1fd88c53a}, !- Thermostat Name
  No;                                     !- Use Ideal Air Loads

OS:Node,
  {a2b456e5-44c1-4f27-b1d3-df4c0576c534}, !- Handle
  Node 1,                                 !- Name
  {0ab39a48-0685-4162-b3fb-114ac5b0a257}, !- Inlet Port
  ;                                       !- Outlet Port

OS:Connection,
  {0ab39a48-0685-4162-b3fb-114ac5b0a257}, !- Handle
  {5391a1ae-6e7e-4c99-a74a-28a6711a0519}, !- Source Object
  11,                                     !- Outlet Port
  {a2b456e5-44c1-4f27-b1d3-df4c0576c534}, !- Target Object
  2;                                      !- Inlet Port

OS:PortList,
  {621456d3-e0b2-46c6-980e-7e881342a1b2}, !- Handle
  {5391a1ae-6e7e-4c99-a74a-28a6711a0519}, !- HVAC Component
  {b693a60d-5e00-47e5-8e61-4162a6a4fed9}; !- Port 1

OS:PortList,
  {ef2e436a-f887-4691-a494-bc4225e886af}, !- Handle
  {5391a1ae-6e7e-4c99-a74a-28a6711a0519}; !- HVAC Component

OS:PortList,
  {754abe76-a30e-4eba-a6bd-a5a87d909117}, !- Handle
  {5391a1ae-6e7e-4c99-a74a-28a6711a0519}, !- HVAC Component
  {252ddc25-a0e3-40a9-8856-d57b2002007d}; !- Port 1

OS:Sizing:Zone,
  {38614510-1da1-4a22-a40e-fbd0f5f4f1ce}, !- Handle
  {5391a1ae-6e7e-4c99-a74a-28a6711a0519}, !- Zone or ZoneList Name
  SupplyAirTemperature,                   !- Zone Cooling Design Supply Air Temperature Input Method
  14,                                     !- Zone Cooling Design Supply Air Temperature {C}
  11.11,                                  !- Zone Cooling Design Supply Air Temperature Difference {deltaC}
  SupplyAirTemperature,                   !- Zone Heating Design Supply Air Temperature Input Method
  40,                                     !- Zone Heating Design Supply Air Temperature {C}
  11.11,                                  !- Zone Heating Design Supply Air Temperature Difference {deltaC}
  0.0085,                                 !- Zone Cooling Design Supply Air Humidity Ratio {kg-H2O/kg-air}
  0.008,                                  !- Zone Heating Design Supply Air Humidity Ratio {kg-H2O/kg-air}
  ,                                       !- Zone Heating Sizing Factor
  ,                                       !- Zone Cooling Sizing Factor
  DesignDay,                              !- Cooling Design Air Flow Method
  ,                                       !- Cooling Design Air Flow Rate {m3/s}
  ,                                       !- Cooling Minimum Air Flow per Zone Floor Area {m3/s-m2}
  ,                                       !- Cooling Minimum Air Flow {m3/s}
  ,                                       !- Cooling Minimum Air Flow Fraction
  DesignDay,                              !- Heating Design Air Flow Method
  ,                                       !- Heating Design Air Flow Rate {m3/s}
  ,                                       !- Heating Maximum Air Flow per Zone Floor Area {m3/s-m2}
  ,                                       !- Heating Maximum Air Flow {m3/s}
  ,                                       !- Heating Maximum Air Flow Fraction
  No,                                     !- Account for Dedicated Outdoor Air System
  NeutralSupplyAir,                       !- Dedicated Outdoor Air System Control Strategy
  autosize,                               !- Dedicated Outdoor Air Low Setpoint Temperature for Design {C}
  autosize,                               !- Dedicated Outdoor Air High Setpoint Temperature for Design {C}
  Sensible Load Only No Latent Load,      !- Zone Load Sizing Method
  HumidityRatioDifference,                !- Zone Latent Cooling Design Supply Air Humidity Ratio Input Method
  ,                                       !- Zone Dehumidification Design Supply Air Humidity Ratio {kgWater/kgDryAir}
  0.005,                                  !- Zone Cooling Design Supply Air Humidity Ratio Difference {kgWater/kgDryAir}
  HumidityRatioDifference,                !- Zone Latent Heating Design Supply Air Humidity Ratio Input Method
  ,                                       !- Zone Humidification Design Supply Air Humidity Ratio {kgWater/kgDryAir}
  0.005,                                  !- Zone Humidification Design Supply Air Humidity Ratio Difference {kgWater/kgDryAir}
  ,                                       !- Zone Humidistat Dehumidification Set Point Schedule Name
  ,                                       !- Zone Humidistat Humidification Set Point Schedule Name
  ,                                       !- Design Zone Air Distribution Effectiveness in Cooling Mode
  ,                                       !- Design Zone Air Distribution Effectiveness in Heating Mode
  ,                                       !- Design Zone Secondary Recirculation Fraction {dimensionless}
  ,                                       !- Design Minimum Zone Ventilation Efficiency {dimensionless}
  Coincident;                             !- Sizing Option

OS:ZoneHVAC:EquipmentList,
  {f6fd60bd-0b97-41a1-9805-28d165e2e2e6}, !- Handle
  Zone HVAC Equipment List 1,             !- Name
  {5391a1ae-6e7e-4c99-a74a-28a6711a0519}, !- Thermal Zone
  ,                                       !- Load Distribution Scheme
  {a00b3e08-cbbd-4db1-86b6-85c0b2f1206b}, !- Zone Equipment 1
  1,                                      !- Zone Equipment Cooling Sequence 1
  1,                                      !- Zone Equipment Heating or No-Load Sequence 1
  ,                                       !- Zone Equipment Sequential Cooling Fraction Schedule Name 1
  ;                                       !- Zone Equipment Sequential Heating Fraction Schedule Name 1

OS:Space,
  {16ecba5e-6675-4f2e-aa4b-f8545c798332}, !- Handle
  Зал_DCV_Recup,                             !- Name
  ,                                       !- Space Type Name
  ,                                       !- Default Construction Set Name
  ,                                       !- Default Schedule Set Name
  ,                                       !- Direction of Relative North {deg}
  ,                                       !- X Origin {m}
  ,                                       !- Y Origin {m}
  ,                                       !- Z Origin {m}
  ,                                       !- Building Story Name
  {5391a1ae-6e7e-4c99-a74a-28a6711a0519}, !- Thermal Zone Name
  ,                                       !- Part of Total Floor Area
  {3ca66e1f-3b87-483d-aa0e-103f3fe583f6}; !- Design Specification Outdoor Air Object Name

OS:Surface,
  {076d6c22-db2a-49de-a68d-25f41bad12b1}, !- Handle
  Пол,                                 !- Name
  Floor,                                  !- Surface Type
  {5f0c7a54-bd8b-4f8d-b0b5-4939c75ef4d5}, !- Construction Name
  {16ecba5e-6675-4f2e-aa4b-f8545c798332}, !- Space Name
  Ground,                                 !- Outside Boundary Condition
  ,                                       !- Outside Boundary Condition Object
  NoSun,                                  !- Sun Exposure
  NoWind,                                 !- Wind Exposure
  ,                                       !- View Factor to Ground
  ,                                       !- Number of Vertices
  0, 0, 0,                                !- X,Y,Z Vertex 1 {m}
  0, 8.48, 0,                             !- X,Y,Z Vertex 2 {m}
  15.68, 8.48, 0,                         !- X,Y,Z Vertex 3 {m}
  15.68, 0, 0;                            !- X,Y,Z Vertex 4 {m}

OS:Surface,
  {ce7e6c1d-5216-452e-ab50-9283526166c8}, !- Handle
  Потолок,                         !- Name
  RoofCeiling,                            !- Surface Type
  {b2e660d1-5936-442d-a404-bbd4644b2041}, !- Construction Name
  {16ecba5e-6675-4f2e-aa4b-f8545c798332}, !- Space Name
  Outdoors,                               !- Outside Boundary Condition
  ,                                       !- Outside Boundary Condition Object
  NoSun,                                  !- Sun Exposure
  NoWind,                                 !- Wind Exposure
  ,                                       !- View Factor to Ground
  ,                                       !- Number of Vertices
  0, 0, 4.85,                             !- X,Y,Z Vertex 1 {m}
  15.68, 0, 4.85,                         !- X,Y,Z Vertex 2 {m}
  15.68, 8.48, 4.85,                      !- X,Y,Z Vertex 3 {m}
  0, 8.48, 4.85;                          !- X,Y,Z Vertex 4 {m}

OS:Surface,
  {a48d15ec-4f09-4fb7-9231-8d0f2be96f84}, !- Handle
  Стена_Ю,                          !- Name
  Wall,                                   !- Surface Type
  {f979e0e7-984f-4d15-99a8-fe0954e87025}, !- Construction Name
  {16ecba5e-6675-4f2e-aa4b-f8545c798332}, !- Space Name
  Outdoors,                               !- Outside Boundary Condition
  ,                                       !- Outside Boundary Condition Object
  SunExposed,                             !- Sun Exposure
  WindExposed,                            !- Wind Exposure
  ,                                       !- View Factor to Ground
  ,                                       !- Number of Vertices
  0, 0, 0,                                !- X,Y,Z Vertex 1 {m}
  0, 0, 4.85,                             !- X,Y,Z Vertex 2 {m}
  15.68, 0, 4.85,                         !- X,Y,Z Vertex 3 {m}
  15.68, 0, 0;                            !- X,Y,Z Vertex 4 {m}

OS:Surface,
  {bbeb0474-fb22-4176-9e35-47afcf49295a}, !- Handle
  Стена_С,                          !- Name
  Wall,                                   !- Surface Type
  {f979e0e7-984f-4d15-99a8-fe0954e87025}, !- Construction Name
  {16ecba5e-6675-4f2e-aa4b-f8545c798332}, !- Space Name
  Outdoors,                               !- Outside Boundary Condition
  ,                                       !- Outside Boundary Condition Object
  SunExposed,                             !- Sun Exposure
  WindExposed,                            !- Wind Exposure
  ,                                       !- View Factor to Ground
  ,                                       !- Number of Vertices
  15.68, 8.48, 0,                         !- X,Y,Z Vertex 1 {m}
  15.68, 8.48, 4.85,                      !- X,Y,Z Vertex 2 {m}
  0, 8.48, 4.85,                          !- X,Y,Z Vertex 3 {m}
  0, 8.48, 0;                             !- X,Y,Z Vertex 4 {m}

OS:Surface,
  {f58773f2-2326-467a-b466-8988e1ba579e}, !- Handle
  Стена_З,                          !- Name
  Wall,                                   !- Surface Type
  {bee0d8b9-db34-4629-93d5-ae9d62d03a4a}, !- Construction Name
  {16ecba5e-6675-4f2e-aa4b-f8545c798332}, !- Space Name
  Outdoors,                               !- Outside Boundary Condition
  ,                                       !- Outside Boundary Condition Object
  SunExposed,                             !- Sun Exposure
  WindExposed,                            !- Wind Exposure
  ,                                       !- View Factor to Ground
  ,                                       !- Number of Vertices
  0, 8.48, 0,                             !- X,Y,Z Vertex 1 {m}
  0, 8.48, 4.85,                          !- X,Y,Z Vertex 2 {m}
  0, 0, 4.85,                             !- X,Y,Z Vertex 3 {m}
  0, 0, 0;                                !- X,Y,Z Vertex 4 {m}

OS:Surface,
  {5aa62e21-4875-4367-bdc7-e924460255c6}, !- Handle
  Стена_В,                          !- Name
  Wall,                                   !- Surface Type
  {bee0d8b9-db34-4629-93d5-ae9d62d03a4a}, !- Construction Name
  {16ecba5e-6675-4f2e-aa4b-f8545c798332}, !- Space Name
  Outdoors,                               !- Outside Boundary Condition
  ,                                       !- Outside Boundary Condition Object
  SunExposed,                             !- Sun Exposure
  WindExposed,                            !- Wind Exposure
  ,                                       !- View Factor to Ground
  ,                                       !- Number of Vertices
  15.68, 0, 0,                            !- X,Y,Z Vertex 1 {m}
  15.68, 0, 4.85,                         !- X,Y,Z Vertex 2 {m}
  15.68, 8.48, 4.85,                      !- X,Y,Z Vertex 3 {m}
  15.68, 8.48, 0;                         !- X,Y,Z Vertex 4 {m}

OS:ScheduleTypeLimits,
  {44bc077c-b6fc-4cb8-a70c-00b43a779f22}, !- Handle
  Заполняемость_DCV_Limits,  !- Name
  0,                                      !- Lower Limit Value
  1,                                      !- Upper Limit Value
  Continuous,                             !- Numeric Type
  Dimensionless;                          !- Unit Type

OS:Schedule:Ruleset,
  {056eb53a-230b-4a6c-b178-2524144f00bf}, !- Handle
  Заполняемость_DCV_Recup,         !- Name
  {44bc077c-b6fc-4cb8-a70c-00b43a779f22}, !- Schedule Type Limits Name
  {3405fe67-a189-4b11-a53a-664f3ccc774c}; !- Default Day Schedule Name

OS:Schedule:Day,
  {3405fe67-a189-4b11-a53a-664f3ccc774c}, !- Handle
  Schedule Day 1,                         !- Name
  {44bc077c-b6fc-4cb8-a70c-00b43a779f22}, !- Schedule Type Limits Name
  ,                                       !- Interpolate to Timestep
  1,                                      !- Hour 1
  0,                                      !- Minute 1
  0,                                      !- Value Until Time 1
  2,                                      !- Hour 2
  0,                                      !- Minute 2
  0,                                      !- Value Until Time 2
  3,                                      !- Hour 3
  0,                                      !- Minute 3
  0,                                      !- Value Until Time 3
  4,                                      !- Hour 4
  0,                                      !- Minute 4
  0,                                      !- Value Until Time 4
  5,                                      !- Hour 5
  0,                                      !- Minute 5
  0,                                      !- Value Until Time 5
  6,                                      !- Hour 6
  0,                                      !- Minute 6
  0,                                      !- Value Until Time 6
  7,                                      !- Hour 7
  0,                                      !- Minute 7
  0,                                      !- Value Until Time 7
  8,                                      !- Hour 8
  0,                                      !- Minute 8
  0,                                      !- Value Until Time 8
  9,                                      !- Hour 9
  0,                                      !- Minute 9
  0.1,                                    !- Value Until Time 9
  10,                                     !- Hour 10
  0,                                      !- Minute 10
  0.1,                                    !- Value Until Time 10
  11,                                     !- Hour 11
  0,                                      !- Minute 11
  0.2,                                    !- Value Until Time 11
  12,                                     !- Hour 12
  0,                                      !- Minute 12
  0.85,                                   !- Value Until Time 12
  13,                                     !- Hour 13
  0,                                      !- Minute 13
  0.85,                                   !- Value Until Time 13
  14,                                     !- Hour 14
  0,                                      !- Minute 14
  0.85,                                   !- Value Until Time 14
  15,                                     !- Hour 15
  0,                                      !- Minute 15
  0.85,                                   !- Value Until Time 15
  16,                                     !- Hour 16
  0,                                      !- Minute 16
  0.15,                                   !- Value Until Time 16
  17,                                     !- Hour 17
  0,                                      !- Minute 17
  0.8,                                    !- Value Until Time 17
  18,                                     !- Hour 18
  0,                                      !- Minute 18
  0.8,                                    !- Value Until Time 18
  19,                                     !- Hour 19
  0,                                      !- Minute 19
  0.15,                                   !- Value Until Time 19
  20,                                     !- Hour 20
  0,                                      !- Minute 20
  0.92,                                   !- Value Until Time 20
  21,                                     !- Hour 21
  0,                                      !- Minute 21
  0.92,                                   !- Value Until Time 21
  22,                                     !- Hour 22
  0,                                      !- Minute 22
  0.2,                                    !- Value Until Time 22
  23,                                     !- Hour 23
  0,                                      !- Minute 23
  0.82,                                   !- Value Until Time 23
  24,                                     !- Hour 24
  0,                                      !- Minute 24
  0.82;                                   !- Value Until Time 24

OS:Schedule:Rule,
  {c7f82b7a-091f-478a-b426-113ed6fec3f0}, !- Handle
  Schedule Rule 1,                        !- Name
  {056eb53a-230b-4a6c-b178-2524144f00bf}, !- Schedule Ruleset Name
  0,                                      !- Rule Order
  {f6329483-ca2d-4243-bdee-a7416678769f}, !- Day Schedule Name
  Yes,                                    !- Apply Sunday
  ,                                       !- Apply Monday
  ,                                       !- Apply Tuesday
  ,                                       !- Apply Wednesday
  ,                                       !- Apply Thursday
  ,                                       !- Apply Friday
  Yes;                                    !- Apply Saturday

OS:Schedule:Day,
  {f6329483-ca2d-4243-bdee-a7416678769f}, !- Handle
  Schedule Day 2,                         !- Name
  {44bc077c-b6fc-4cb8-a70c-00b43a779f22}, !- Schedule Type Limits Name
  ,                                       !- Interpolate to Timestep
  1,                                      !- Hour 1
  0,                                      !- Minute 1
  0,                                      !- Value Until Time 1
  2,                                      !- Hour 2
  0,                                      !- Minute 2
  0,                                      !- Value Until Time 2
  3,                                      !- Hour 3
  0,                                      !- Minute 3
  0,                                      !- Value Until Time 3
  4,                                      !- Hour 4
  0,                                      !- Minute 4
  0,                                      !- Value Until Time 4
  5,                                      !- Hour 5
  0,                                      !- Minute 5
  0,                                      !- Value Until Time 5
  6,                                      !- Hour 6
  0,                                      !- Minute 6
  0,                                      !- Value Until Time 6
  7,                                      !- Hour 7
  0,                                      !- Minute 7
  0,                                      !- Value Until Time 7
  8,                                      !- Hour 8
  0,                                      !- Minute 8
  0,                                      !- Value Until Time 8
  9,                                      !- Hour 9
  0,                                      !- Minute 9
  0.1,                                    !- Value Until Time 9
  10,                                     !- Hour 10
  0,                                      !- Minute 10
  0.1,                                    !- Value Until Time 10
  11,                                     !- Hour 11
  0,                                      !- Minute 11
  0.88,                                   !- Value Until Time 11
  12,                                     !- Hour 12
  0,                                      !- Minute 12
  0.88,                                   !- Value Until Time 12
  13,                                     !- Hour 13
  0,                                      !- Minute 13
  0.92,                                   !- Value Until Time 13
  14,                                     !- Hour 14
  0,                                      !- Minute 14
  0.92,                                   !- Value Until Time 14
  15,                                     !- Hour 15
  0,                                      !- Minute 15